$ -------------------------------------------------------------------- $
$ WAVEWATCH III Grid preprocessor input file                           $
$ -------------------------------------------------------------------- $
  'Arctic Ocean PolarStereo 9km'
$
   1.07  0.035  50  36  0.5
$
   F T T T F T
$
  900.  300.  600.   30.
$
&SIN4 BETAMAX = BETAMAXvar,
 TAUWSHELTER = TAUWSHELTERvar,
 SWELLF = SWELLFvar,
 SWELLF2 = SWELLF2var,
 SWELLF3 = SWELLF3var,
 SWELLF4 = SWELLF4var,
 SWELLF5 = SWELLF5var,
 SWELLF7 = SWELLF7var /
&SNL1
 NLPROP = NLPROPvar /
&SDS4
 SDSC2 = SDSC2var,
 SDSCUM = SDSCUMvar,
 SDSC5 = SDSC5var,
 SDSC6 = SDSC6var,
 SDSBR = SDSBRvar,
 SDSBCK = SDSBCKvar,
 SDSHCK = SDSHCKvar,
 SDSCOS = SDSCOSvar /
&MISC CICE0 = 0.25,
 CICEN = 0.75,
 FLAGTR = 4 /
&SBT1 GAMMA = -0.038 /
&PRO3 WDTHCG=3.0, WDTHTH=3.0 /
END OF NAMELISTS
$
    'CURV' T 'NONE'
   1006   1006
            20 1.0 0.0 1 1 '(....)' 'NAME' '../grids/aoc_9km.lon'
            20 1.0 0.0 1 1 '(....)' 'NAME' '../grids/aoc_9km.lat'
  -0.1 2.50  20  0.001 1 1 '(....)' 'NAME' '../grids/aoc_9km.bot'
  21  0.01  1 1 '(....)' 'NAME' '../grids/aoc_9km.obs'
  22        1 1 '(....)' 'NAME' '../grids/aoc_9km.mask'
$
      0.  0.  0.  0.  0
$ -------------------------------------------------------------------- $
$ End of input file                                                    $
$ -------------------------------------------------------------------- $
